* NGSPICE file created from single_port_ram.ext - technology: sky130A

* Black-box entry subcircuit for sky130_fd_sc_hd__clkbuf_1 abstract view
.subckt sky130_fd_sc_hd__clkbuf_1 A VGND VNB VPB VPWR X
.ends

* Black-box entry subcircuit for sky130_fd_sc_hd__mux2_1 abstract view
.subckt sky130_fd_sc_hd__mux2_1 A0 A1 S VGND VNB VPB VPWR X
.ends

* Black-box entry subcircuit for sky130_fd_sc_hd__tapvpwrvgnd_1 abstract view
.subckt sky130_fd_sc_hd__tapvpwrvgnd_1 VGND VPWR
.ends

* Black-box entry subcircuit for sky130_fd_sc_hd__o221a_1 abstract view
.subckt sky130_fd_sc_hd__o221a_1 A1 A2 B1 B2 C1 VGND VNB VPB VPWR X
.ends

* Black-box entry subcircuit for sky130_fd_sc_hd__decap_6 abstract view
.subckt sky130_fd_sc_hd__decap_6 VGND VNB VPB VPWR
.ends

* Black-box entry subcircuit for sky130_fd_sc_hd__fill_2 abstract view
.subckt sky130_fd_sc_hd__fill_2 VGND VNB VPB VPWR
.ends

* Black-box entry subcircuit for sky130_fd_sc_hd__fill_1 abstract view
.subckt sky130_fd_sc_hd__fill_1 VGND VNB VPB VPWR
.ends

* Black-box entry subcircuit for sky130_fd_sc_hd__decap_3 abstract view
.subckt sky130_fd_sc_hd__decap_3 VGND VNB VPB VPWR
.ends

* Black-box entry subcircuit for sky130_ef_sc_hd__decap_12 abstract view
.subckt sky130_ef_sc_hd__decap_12 VPWR VGND VPB VNB
.ends

* Black-box entry subcircuit for sky130_fd_sc_hd__dlygate4sd3_1 abstract view
.subckt sky130_fd_sc_hd__dlygate4sd3_1 A VGND VNB VPB VPWR X
.ends

* Black-box entry subcircuit for sky130_fd_sc_hd__decap_8 abstract view
.subckt sky130_fd_sc_hd__decap_8 VGND VNB VPB VPWR
.ends

* Black-box entry subcircuit for sky130_fd_sc_hd__decap_4 abstract view
.subckt sky130_fd_sc_hd__decap_4 VGND VNB VPB VPWR
.ends

* Black-box entry subcircuit for sky130_fd_sc_hd__dfxtp_2 abstract view
.subckt sky130_fd_sc_hd__dfxtp_2 CLK D VGND VNB VPB VPWR Q
.ends

* Black-box entry subcircuit for sky130_fd_sc_hd__dfxtp_1 abstract view
.subckt sky130_fd_sc_hd__dfxtp_1 CLK D VGND VNB VPB VPWR Q
.ends

* Black-box entry subcircuit for sky130_fd_sc_hd__a21o_1 abstract view
.subckt sky130_fd_sc_hd__a21o_1 A1 A2 B1 VGND VNB VPB VPWR X
.ends

* Black-box entry subcircuit for sky130_fd_sc_hd__mux4_1 abstract view
.subckt sky130_fd_sc_hd__mux4_1 A0 A1 A2 A3 S0 S1 VGND VNB VPB VPWR X
.ends

* Black-box entry subcircuit for sky130_fd_sc_hd__or2_4 abstract view
.subckt sky130_fd_sc_hd__or2_4 A B VGND VNB VPB VPWR X
.ends

* Black-box entry subcircuit for sky130_fd_sc_hd__and2b_1 abstract view
.subckt sky130_fd_sc_hd__and2b_1 A_N B VGND VNB VPB VPWR X
.ends

* Black-box entry subcircuit for sky130_fd_sc_hd__buf_4 abstract view
.subckt sky130_fd_sc_hd__buf_4 A VGND VNB VPB VPWR X
.ends

* Black-box entry subcircuit for sky130_fd_sc_hd__clkbuf_4 abstract view
.subckt sky130_fd_sc_hd__clkbuf_4 A VGND VNB VPB VPWR X
.ends

* Black-box entry subcircuit for sky130_fd_sc_hd__or2_1 abstract view
.subckt sky130_fd_sc_hd__or2_1 A B VGND VNB VPB VPWR X
.ends

* Black-box entry subcircuit for sky130_fd_sc_hd__diode_2 abstract view
.subckt sky130_fd_sc_hd__diode_2 DIODE VGND VNB VPB VPWR
.ends

* Black-box entry subcircuit for sky130_fd_sc_hd__dfxtp_4 abstract view
.subckt sky130_fd_sc_hd__dfxtp_4 CLK D VGND VNB VPB VPWR Q
.ends

* Black-box entry subcircuit for sky130_fd_sc_hd__or3b_4 abstract view
.subckt sky130_fd_sc_hd__or3b_4 A B C_N VGND VNB VPB VPWR X
.ends

* Black-box entry subcircuit for sky130_fd_sc_hd__and2_1 abstract view
.subckt sky130_fd_sc_hd__and2_1 A B VGND VNB VPB VPWR X
.ends

* Black-box entry subcircuit for sky130_fd_sc_hd__nor2_4 abstract view
.subckt sky130_fd_sc_hd__nor2_4 A B VGND VNB VPB VPWR Y
.ends

* Black-box entry subcircuit for sky130_fd_sc_hd__o21a_1 abstract view
.subckt sky130_fd_sc_hd__o21a_1 A1 A2 B1 VGND VNB VPB VPWR X
.ends

* Black-box entry subcircuit for sky130_fd_sc_hd__a22o_1 abstract view
.subckt sky130_fd_sc_hd__a22o_1 A1 A2 B1 B2 VGND VNB VPB VPWR X
.ends

* Black-box entry subcircuit for sky130_fd_sc_hd__or4bb_4 abstract view
.subckt sky130_fd_sc_hd__or4bb_4 A B C_N D_N VGND VNB VPB VPWR X
.ends

* Black-box entry subcircuit for sky130_fd_sc_hd__nand2_4 abstract view
.subckt sky130_fd_sc_hd__nand2_4 A B VGND VNB VPB VPWR Y
.ends

* Black-box entry subcircuit for sky130_fd_sc_hd__inv_2 abstract view
.subckt sky130_fd_sc_hd__inv_2 A VGND VNB VPB VPWR Y
.ends

* Black-box entry subcircuit for sky130_fd_sc_hd__a32o_1 abstract view
.subckt sky130_fd_sc_hd__a32o_1 A1 A2 A3 B1 B2 VGND VNB VPB VPWR X
.ends

* Black-box entry subcircuit for sky130_fd_sc_hd__mux4_2 abstract view
.subckt sky130_fd_sc_hd__mux4_2 A0 A1 A2 A3 S0 S1 VGND VNB VPB VPWR X
.ends

* Black-box entry subcircuit for sky130_fd_sc_hd__clkbuf_8 abstract view
.subckt sky130_fd_sc_hd__clkbuf_8 A VGND VNB VPB VPWR X
.ends

* Black-box entry subcircuit for sky130_fd_sc_hd__o21ba_1 abstract view
.subckt sky130_fd_sc_hd__o21ba_1 A1 A2 B1_N VGND VNB VPB VPWR X
.ends

* Black-box entry subcircuit for sky130_fd_sc_hd__buf_2 abstract view
.subckt sky130_fd_sc_hd__buf_2 A VGND VNB VPB VPWR X
.ends

* Black-box entry subcircuit for sky130_fd_sc_hd__nor3_4 abstract view
.subckt sky130_fd_sc_hd__nor3_4 A B C VGND VNB VPB VPWR Y
.ends

* Black-box entry subcircuit for sky130_fd_sc_hd__or4_4 abstract view
.subckt sky130_fd_sc_hd__or4_4 A B C D VGND VNB VPB VPWR X
.ends

* Black-box entry subcircuit for sky130_fd_sc_hd__a211o_1 abstract view
.subckt sky130_fd_sc_hd__a211o_1 A1 A2 B1 C1 VGND VNB VPB VPWR X
.ends

* Black-box entry subcircuit for sky130_fd_sc_hd__o31a_1 abstract view
.subckt sky130_fd_sc_hd__o31a_1 A1 A2 A3 B1 VGND VNB VPB VPWR X
.ends

* Black-box entry subcircuit for sky130_fd_sc_hd__clkbuf_2 abstract view
.subckt sky130_fd_sc_hd__clkbuf_2 A VGND VNB VPB VPWR X
.ends

* Black-box entry subcircuit for sky130_fd_sc_hd__or3_4 abstract view
.subckt sky130_fd_sc_hd__or3_4 A B C VGND VNB VPB VPWR X
.ends

* Black-box entry subcircuit for sky130_fd_sc_hd__clkinv_4 abstract view
.subckt sky130_fd_sc_hd__clkinv_4 A VGND VNB VPB VPWR Y
.ends

* Black-box entry subcircuit for sky130_fd_sc_hd__or3_1 abstract view
.subckt sky130_fd_sc_hd__or3_1 A B C VGND VNB VPB VPWR X
.ends

* Black-box entry subcircuit for sky130_fd_sc_hd__nor2b_4 abstract view
.subckt sky130_fd_sc_hd__nor2b_4 A B_N VGND VNB VPB VPWR Y
.ends

* Black-box entry subcircuit for sky130_fd_sc_hd__clkbuf_16 abstract view
.subckt sky130_fd_sc_hd__clkbuf_16 A VGND VNB VPB VPWR X
.ends

* Black-box entry subcircuit for sky130_fd_sc_hd__or4_1 abstract view
.subckt sky130_fd_sc_hd__or4_1 A B C D VGND VNB VPB VPWR X
.ends

* Black-box entry subcircuit for sky130_fd_sc_hd__buf_6 abstract view
.subckt sky130_fd_sc_hd__buf_6 A VGND VNB VPB VPWR X
.ends

* Black-box entry subcircuit for sky130_fd_sc_hd__and3b_1 abstract view
.subckt sky130_fd_sc_hd__and3b_1 A_N B C VGND VNB VPB VPWR X
.ends

* Black-box entry subcircuit for sky130_fd_sc_hd__buf_1 abstract view
.subckt sky130_fd_sc_hd__buf_1 A VGND VNB VPB VPWR X
.ends

* Black-box entry subcircuit for sky130_fd_sc_hd__dlymetal6s2s_1 abstract view
.subckt sky130_fd_sc_hd__dlymetal6s2s_1 A VGND VNB VPB VPWR X
.ends

* Black-box entry subcircuit for sky130_fd_sc_hd__inv_4 abstract view
.subckt sky130_fd_sc_hd__inv_4 A VGND VNB VPB VPWR Y
.ends

* Black-box entry subcircuit for sky130_fd_sc_hd__and4bb_4 abstract view
.subckt sky130_fd_sc_hd__and4bb_4 A_N B_N C D VGND VNB VPB VPWR X
.ends

* Black-box entry subcircuit for sky130_fd_sc_hd__and3_2 abstract view
.subckt sky130_fd_sc_hd__and3_2 A B C VGND VNB VPB VPWR X
.ends

* Black-box entry subcircuit for sky130_fd_sc_hd__and3_1 abstract view
.subckt sky130_fd_sc_hd__and3_1 A B C VGND VNB VPB VPWR X
.ends

* Black-box entry subcircuit for sky130_fd_sc_hd__and3_4 abstract view
.subckt sky130_fd_sc_hd__and3_4 A B C VGND VNB VPB VPWR X
.ends

* Black-box entry subcircuit for sky130_fd_sc_hd__or3b_1 abstract view
.subckt sky130_fd_sc_hd__or3b_1 A B C_N VGND VNB VPB VPWR X
.ends

* Black-box entry subcircuit for sky130_fd_sc_hd__and4b_1 abstract view
.subckt sky130_fd_sc_hd__and4b_1 A_N B C D VGND VNB VPB VPWR X
.ends

* Black-box entry subcircuit for sky130_fd_sc_hd__and3b_2 abstract view
.subckt sky130_fd_sc_hd__and3b_2 A_N B C VGND VNB VPB VPWR X
.ends

* Black-box entry subcircuit for sky130_fd_sc_hd__and4b_2 abstract view
.subckt sky130_fd_sc_hd__and4b_2 A_N B C D VGND VNB VPB VPWR X
.ends

.subckt single_port_ram VGND VPWR addr[0] addr[1] addr[2] addr[3] addr[4] addr[5]
+ clk data[0] data[1] data[2] data[3] data[4] data[5] data[6] data[7] q[0] q[1] q[2]
+ q[3] q[4] q[5] q[6] q[7] we
X_3155_ _1567_ VGND VGND VPWR VPWR _0391_ sky130_fd_sc_hd__clkbuf_1
X_2106_ ram\[62\]\[5\] ram\[63\]\[5\] _0604_ VGND VGND VPWR VPWR _0901_ sky130_fd_sc_hd__mux2_1
X_3086_ net267 _1327_ _1519_ VGND VGND VPWR VPWR _1527_ sky130_fd_sc_hd__mux2_1
XTAP_TAPCELL_ROW_65_732 VGND VPWR sky130_fd_sc_hd__tapvpwrvgnd_1
X_2037_ _0830_ _0831_ _0832_ _0606_ _0573_ VGND VGND VPWR VPWR _0833_ sky130_fd_sc_hd__o221a_1
XTAP_TAPCELL_ROW_37_489 VGND VPWR sky130_fd_sc_hd__tapvpwrvgnd_1
XFILLER_0_76_133 VGND VGND VPWR VPWR sky130_fd_sc_hd__decap_6
XFILLER_0_64_306 VGND VGND VPWR VPWR sky130_fd_sc_hd__fill_2
XFILLER_0_17_222 VGND VGND VPWR VPWR sky130_fd_sc_hd__fill_2
XFILLER_0_17_200 VGND VGND VPWR VPWR sky130_fd_sc_hd__fill_2
XFILLER_0_57_391 VGND VGND VPWR VPWR sky130_fd_sc_hd__fill_1
X_2939_ _1404_ net83 _1442_ VGND VGND VPWR VPWR _1447_ sky130_fd_sc_hd__mux2_1
XTAP_TAPCELL_ROW_20_345 VGND VPWR sky130_fd_sc_hd__tapvpwrvgnd_1
XFILLER_0_17_277 VGND VGND VPWR VPWR sky130_fd_sc_hd__decap_3
XFILLER_0_13_461 VPWR VGND VPWR VGND sky130_ef_sc_hd__decap_12
Xhold340 ram\[7\]\[2\] VGND VGND VPWR VPWR net363 sky130_fd_sc_hd__dlygate4sd3_1
Xhold351 ram\[19\]\[1\] VGND VGND VPWR VPWR net374 sky130_fd_sc_hd__dlygate4sd3_1
Xhold362 addr_reg\[1\] VGND VGND VPWR VPWR net385 sky130_fd_sc_hd__dlygate4sd3_1
Xhold395 ram\[62\]\[2\] VGND VGND VPWR VPWR net418 sky130_fd_sc_hd__dlygate4sd3_1
Xhold384 ram\[29\]\[5\] VGND VGND VPWR VPWR net407 sky130_fd_sc_hd__dlygate4sd3_1
Xhold373 ram\[63\]\[7\] VGND VGND VPWR VPWR net396 sky130_fd_sc_hd__dlygate4sd3_1
XTAP_TAPCELL_ROW_28_412 VGND VPWR sky130_fd_sc_hd__tapvpwrvgnd_1
XFILLER_0_55_328 VGND VGND VPWR VPWR sky130_fd_sc_hd__decap_8
XTAP_TAPCELL_ROW_71_779 VGND VPWR sky130_fd_sc_hd__tapvpwrvgnd_1
XFILLER_0_23_225 VGND VGND VPWR VPWR sky130_fd_sc_hd__fill_2
XFILLER_0_23_258 VGND VGND VPWR VPWR sky130_fd_sc_hd__fill_1
XPHY_EDGE_ROW_39_Left_121 VGND VGND VPWR VPWR sky130_fd_sc_hd__decap_3
XFILLER_0_48_15 VGND VGND VPWR VPWR sky130_fd_sc_hd__decap_4
XTAP_TAPCELL_ROW_79_846 VGND VPWR sky130_fd_sc_hd__tapvpwrvgnd_1
XFILLER_0_3_39 VPWR VGND VPWR VGND sky130_ef_sc_hd__decap_12
XPHY_EDGE_ROW_48_Left_130 VGND VGND VPWR VPWR sky130_fd_sc_hd__decap_3
XTAP_TAPCELL_ROW_62_702 VGND VPWR sky130_fd_sc_hd__tapvpwrvgnd_1
X_3911_ clknet_leaf_25_clk _0011_ VGND VGND VPWR VPWR _0005_ sky130_fd_sc_hd__dfxtp_2
XFILLER_0_13_51 VGND VGND VPWR VPWR sky130_fd_sc_hd__decap_4
X_3842_ clknet_leaf_29_clk _0404_ VGND VGND VPWR VPWR ram\[55\]\[0\] sky130_fd_sc_hd__dfxtp_1
XFILLER_0_73_169 VGND VGND VPWR VPWR sky130_fd_sc_hd__fill_1
XFILLER_0_6_469 VGND VGND VPWR VPWR sky130_fd_sc_hd__decap_6
X_3773_ clknet_leaf_20_clk _0335_ VGND VGND VPWR VPWR ram\[46\]\[3\] sky130_fd_sc_hd__dfxtp_1
X_2724_ net163 _1325_ _1313_ VGND VGND VPWR VPWR _1326_ sky130_fd_sc_hd__mux2_1
X_2655_ _1286_ VGND VGND VPWR VPWR _0172_ sky130_fd_sc_hd__clkbuf_1
X_2586_ _1249_ VGND VGND VPWR VPWR _0140_ sky130_fd_sc_hd__clkbuf_1
X_3207_ net68 _1319_ _1592_ VGND VGND VPWR VPWR _1596_ sky130_fd_sc_hd__mux2_1
X_3138_ _1558_ VGND VGND VPWR VPWR _0383_ sky130_fd_sc_hd__clkbuf_1
XFILLER_0_69_409 VGND VGND VPWR VPWR sky130_fd_sc_hd__fill_2
X_3069_ net38 _1327_ _1510_ VGND VGND VPWR VPWR _1518_ sky130_fd_sc_hd__mux2_1
XFILLER_0_54_80 VGND VGND VPWR VPWR sky130_fd_sc_hd__fill_1
XFILLER_0_64_169 VGND VGND VPWR VPWR sky130_fd_sc_hd__fill_2
XFILLER_0_72_191 VGND VGND VPWR VPWR sky130_fd_sc_hd__decap_4
Xhold170 ram\[59\]\[4\] VGND VGND VPWR VPWR net193 sky130_fd_sc_hd__dlygate4sd3_1
Xhold181 ram\[6\]\[2\] VGND VGND VPWR VPWR net204 sky130_fd_sc_hd__dlygate4sd3_1
Xhold192 ram\[25\]\[6\] VGND VGND VPWR VPWR net215 sky130_fd_sc_hd__dlygate4sd3_1
XFILLER_0_18_29 VPWR VGND VPWR VGND sky130_ef_sc_hd__decap_12
XFILLER_0_68_464 VGND VGND VPWR VPWR sky130_fd_sc_hd__fill_1
XFILLER_0_36_350 VGND VGND VPWR VPWR sky130_fd_sc_hd__decap_3
XFILLER_0_43_309 VGND VGND VPWR VPWR sky130_fd_sc_hd__fill_1
XFILLER_0_55_169 VGND VGND VPWR VPWR sky130_fd_sc_hd__decap_6
XFILLER_0_3_417 VPWR VGND VPWR VGND sky130_ef_sc_hd__decap_12
XFILLER_0_70_128 VGND VGND VPWR VPWR sky130_fd_sc_hd__decap_3
X_2440_ _1165_ VGND VGND VPWR VPWR _0078_ sky130_fd_sc_hd__clkbuf_1
X_2371_ _1123_ VGND VGND VPWR VPWR _0051_ sky130_fd_sc_hd__clkbuf_1
XTAP_TAPCELL_ROW_39_507 VGND VPWR sky130_fd_sc_hd__tapvpwrvgnd_1
XFILLER_0_75_57 VPWR VGND VPWR VGND sky130_ef_sc_hd__decap_12
XTAP_TAPCELL_ROW_47_573 VGND VPWR sky130_fd_sc_hd__tapvpwrvgnd_1
XFILLER_0_59_464 VGND VGND VPWR VPWR sky130_fd_sc_hd__fill_1
XFILLER_0_24_72 VGND VGND VPWR VPWR sky130_fd_sc_hd__fill_1
XFILLER_0_74_456 VPWR VGND VPWR VGND sky130_ef_sc_hd__decap_12
X_3825_ clknet_leaf_22_clk _0387_ VGND VGND VPWR VPWR ram\[52\]\[7\] sky130_fd_sc_hd__dfxtp_1
X_3756_ clknet_leaf_20_clk _0318_ VGND VGND VPWR VPWR ram\[44\]\[2\] sky130_fd_sc_hd__dfxtp_1
X_2707_ _1314_ VGND VGND VPWR VPWR _0196_ sky130_fd_sc_hd__clkbuf_1
XFILLER_0_40_82 VGND VGND VPWR VPWR sky130_fd_sc_hd__fill_2
X_3687_ clknet_leaf_12_clk _0249_ VGND VGND VPWR VPWR ram\[35\]\[5\] sky130_fd_sc_hd__dfxtp_1
XFILLER_0_71_3 VPWR VGND VPWR VGND sky130_ef_sc_hd__decap_12
X_2638_ _1277_ VGND VGND VPWR VPWR _0164_ sky130_fd_sc_hd__clkbuf_1
XFILLER_0_10_250 VGND VGND VPWR VPWR sky130_fd_sc_hd__fill_2
X_2569_ _1240_ VGND VGND VPWR VPWR _0132_ sky130_fd_sc_hd__clkbuf_1
XTAP_TAPCELL_ROW_81_874 VGND VPWR sky130_fd_sc_hd__tapvpwrvgnd_1
XTAP_TAPCELL_ROW_81_863 VGND VPWR sky130_fd_sc_hd__tapvpwrvgnd_1
XFILLER_0_77_294 VGND VGND VPWR VPWR sky130_fd_sc_hd__fill_1
XFILLER_0_33_331 VGND VGND VPWR VPWR sky130_fd_sc_hd__decap_4
XFILLER_0_52_139 VGND VGND VPWR VPWR sky130_fd_sc_hd__fill_1
XFILLER_0_60_194 VGND VGND VPWR VPWR sky130_fd_sc_hd__fill_2
XFILLER_0_0_29 VPWR VGND VPWR VGND sky130_ef_sc_hd__decap_12
XFILLER_0_61_15 VPWR VGND VPWR VGND sky130_ef_sc_hd__decap_12
XTAP_TAPCELL_ROW_44_554 VGND VPWR sky130_fd_sc_hd__tapvpwrvgnd_1
X_1940_ _0602_ ram\[61\]\[2\] _0570_ VGND VGND VPWR VPWR _0738_ sky130_fd_sc_hd__a21o_1
XFILLER_0_68_294 VGND VGND VPWR VPWR sky130_fd_sc_hd__fill_2
X_1871_ ram\[32\]\[1\] ram\[33\]\[1\] ram\[34\]\[1\] ram\[35\]\[1\] _0576_ _0577_
+ VGND VGND VPWR VPWR _0670_ sky130_fd_sc_hd__mux4_1
XFILLER_0_9_27 VPWR VGND VPWR VGND sky130_ef_sc_hd__decap_12
X_3610_ clknet_leaf_1_clk _0172_ VGND VGND VPWR VPWR ram\[26\]\[0\] sky130_fd_sc_hd__dfxtp_1
X_3541_ clknet_leaf_41_clk _0103_ VGND VGND VPWR VPWR ram\[17\]\[3\] sky130_fd_sc_hd__dfxtp_1
XFILLER_0_24_331 VGND VGND VPWR VPWR sky130_fd_sc_hd__fill_2
XFILLER_0_10_41 VPWR VGND VPWR VGND sky130_ef_sc_hd__decap_12
XFILLER_0_10_85 VGND VGND VPWR VPWR sky130_fd_sc_hd__fill_1
X_3472_ clknet_leaf_13_clk _0034_ VGND VGND VPWR VPWR ram\[8\]\[6\] sky130_fd_sc_hd__dfxtp_1
X_2423_ _1081_ net288 _1150_ VGND VGND VPWR VPWR _1155_ sky130_fd_sc_hd__mux2_1
X_2354_ _1051_ _1113_ VGND VGND VPWR VPWR _1114_ sky130_fd_sc_hd__or2_4
X_2285_ _1069_ VGND VGND VPWR VPWR _0019_ sky130_fd_sc_hd__clkbuf_1
XFILLER_0_66_209 VGND VGND VPWR VPWR sky130_fd_sc_hd__decap_3
XFILLER_0_19_169 VGND VGND VPWR VPWR sky130_fd_sc_hd__decap_3
XFILLER_0_62_415 VGND VGND VPWR VPWR sky130_fd_sc_hd__fill_2
X_3808_ clknet_leaf_23_clk _0370_ VGND VGND VPWR VPWR ram\[50\]\[6\] sky130_fd_sc_hd__dfxtp_1
XFILLER_0_62_437 VGND VGND VPWR VPWR sky130_fd_sc_hd__fill_1
X_3739_ clknet_leaf_19_clk _0301_ VGND VGND VPWR VPWR ram\[42\]\[1\] sky130_fd_sc_hd__dfxtp_1
XFILLER_0_42_194 VGND VGND VPWR VPWR sky130_fd_sc_hd__fill_2
XTAP_TAPCELL_ROW_7_235 VGND VPWR sky130_fd_sc_hd__tapvpwrvgnd_1
XTAP_TAPCELL_ROW_58_668 VGND VPWR sky130_fd_sc_hd__tapvpwrvgnd_1
XTAP_TAPCELL_ROW_41_524 VGND VPWR sky130_fd_sc_hd__tapvpwrvgnd_1
XFILLER_0_31_18 VGND VGND VPWR VPWR sky130_fd_sc_hd__fill_1
XFILLER_0_65_253 VGND VGND VPWR VPWR sky130_fd_sc_hd__decap_8
XFILLER_0_33_161 VGND VGND VPWR VPWR sky130_fd_sc_hd__fill_1
XFILLER_0_21_389 VGND VGND VPWR VPWR sky130_fd_sc_hd__decap_3
X_2070_ _0593_ ram\[8\]\[4\] VGND VGND VPWR VPWR _0866_ sky130_fd_sc_hd__and2b_1
X_2972_ _1402_ net359 _1461_ VGND VGND VPWR VPWR _1465_ sky130_fd_sc_hd__mux2_1
XFILLER_0_56_253 VGND VGND VPWR VPWR sky130_fd_sc_hd__decap_8
X_1923_ _0602_ ram\[37\]\[2\] _0570_ VGND VGND VPWR VPWR _0721_ sky130_fd_sc_hd__a21o_1
XFILLER_0_71_223 VGND VGND VPWR VPWR sky130_fd_sc_hd__fill_1
XFILLER_0_21_73 VGND VGND VPWR VPWR sky130_fd_sc_hd__fill_1
X_1854_ _0555_ VGND VGND VPWR VPWR _0654_ sky130_fd_sc_hd__buf_4
XTAP_TAPCELL_ROW_12_281 VGND VPWR sky130_fd_sc_hd__tapvpwrvgnd_1
XFILLER_0_12_301 VGND VGND VPWR VPWR sky130_fd_sc_hd__decap_4
X_1785_ _0544_ VGND VGND VPWR VPWR _0585_ sky130_fd_sc_hd__clkbuf_4
XFILLER_0_71_289 VGND VGND VPWR VPWR sky130_fd_sc_hd__decap_3
X_3524_ clknet_leaf_9_clk _0086_ VGND VGND VPWR VPWR ram\[15\]\[2\] sky130_fd_sc_hd__dfxtp_1
X_3455_ clknet_leaf_39_clk _0017_ VGND VGND VPWR VPWR ram\[7\]\[5\] sky130_fd_sc_hd__dfxtp_1
X_2406_ net386 _1064_ _1139_ VGND VGND VPWR VPWR _1145_ sky130_fd_sc_hd__mux2_1
X_3386_ _1690_ VGND VGND VPWR VPWR _0499_ sky130_fd_sc_hd__clkbuf_1
X_2337_ net137 _1048_ _1104_ VGND VGND VPWR VPWR _1105_ sky130_fd_sc_hd__mux2_1
XFILLER_0_34_3 VGND VGND VPWR VPWR sky130_fd_sc_hd__fill_2
X_2268_ net9 VGND VGND VPWR VPWR _1058_ sky130_fd_sc_hd__buf_4
X_2199_ _0551_ _0991_ VGND VGND VPWR VPWR _0992_ sky130_fd_sc_hd__or2_1
XFILLER_0_62_80 VGND VGND VPWR VPWR sky130_fd_sc_hd__decap_4
XFILLER_0_7_383 VGND VGND VPWR VPWR sky130_fd_sc_hd__decap_3
XFILLER_0_30_197 VGND VGND VPWR VPWR sky130_fd_sc_hd__decap_6
Xhold41 ram\[16\]\[2\] VGND VGND VPWR VPWR net64 sky130_fd_sc_hd__dlygate4sd3_1
Xhold30 ram\[62\]\[1\] VGND VGND VPWR VPWR net53 sky130_fd_sc_hd__dlygate4sd3_1
Xhold63 ram\[56\]\[5\] VGND VGND VPWR VPWR net86 sky130_fd_sc_hd__dlygate4sd3_1
Xhold52 ram\[28\]\[4\] VGND VGND VPWR VPWR net75 sky130_fd_sc_hd__dlygate4sd3_1
Xhold74 ram\[32\]\[4\] VGND VGND VPWR VPWR net97 sky130_fd_sc_hd__dlygate4sd3_1
Xhold85 ram\[56\]\[7\] VGND VGND VPWR VPWR net108 sky130_fd_sc_hd__dlygate4sd3_1
Xhold96 ram\[29\]\[4\] VGND VGND VPWR VPWR net119 sky130_fd_sc_hd__dlygate4sd3_1
XTAP_TAPCELL_ROW_18_329 VGND VPWR sky130_fd_sc_hd__tapvpwrvgnd_1
XTAP_TAPCELL_ROW_26_395 VGND VPWR sky130_fd_sc_hd__tapvpwrvgnd_1
XFILLER_0_38_253 VGND VGND VPWR VPWR sky130_fd_sc_hd__fill_2
XFILLER_0_53_223 VGND VGND VPWR VPWR sky130_fd_sc_hd__fill_1
XPHY_EDGE_ROW_20_Left_102 VGND VGND VPWR VPWR sky130_fd_sc_hd__decap_3
XFILLER_0_41_418 VGND VGND VPWR VPWR sky130_fd_sc_hd__decap_6
XANTENNA_5 _1315_ VGND VGND VPWR VPWR sky130_fd_sc_hd__diode_2
XFILLER_0_21_197 VGND VGND VPWR VPWR sky130_fd_sc_hd__decap_8
X_3240_ _1613_ VGND VGND VPWR VPWR _0430_ sky130_fd_sc_hd__clkbuf_1
X_3171_ _1544_ net432 _1572_ VGND VGND VPWR VPWR _1576_ sky130_fd_sc_hd__mux2_1
X_2122_ ram\[24\]\[5\] ram\[25\]\[5\] ram\[26\]\[5\] ram\[27\]\[5\] _0561_ _0634_
+ VGND VGND VPWR VPWR _0917_ sky130_fd_sc_hd__mux4_1
X_2053_ ram\[56\]\[4\] ram\[57\]\[4\] ram\[58\]\[4\] ram\[59\]\[4\] _0615_ _0553_
+ VGND VGND VPWR VPWR _0849_ sky130_fd_sc_hd__mux4_1
XTAP_TAPCELL_ROW_52_619 VGND VPWR sky130_fd_sc_hd__tapvpwrvgnd_1
XFILLER_0_76_337 VPWR VGND VPWR VGND sky130_ef_sc_hd__decap_12
XFILLER_0_8_125 VGND VGND VPWR VPWR sky130_fd_sc_hd__fill_2
XFILLER_0_29_253 VGND VGND VPWR VPWR sky130_fd_sc_hd__decap_4
XFILLER_0_32_83 VGND VGND VPWR VPWR sky130_fd_sc_hd__fill_1
X_2955_ _1402_ net456 _1452_ VGND VGND VPWR VPWR _1456_ sky130_fd_sc_hd__mux2_1
XTAP_TAPCELL_ROW_60_685 VGND VPWR sky130_fd_sc_hd__tapvpwrvgnd_1
X_1906_ _0702_ _0703_ _0704_ _0644_ _0563_ VGND VGND VPWR VPWR _0705_ sky130_fd_sc_hd__o221a_1
X_2886_ _1417_ VGND VGND VPWR VPWR _0272_ sky130_fd_sc_hd__clkbuf_1
XFILLER_0_32_418 VGND VGND VPWR VPWR sky130_fd_sc_hd__fill_2
X_1837_ _0545_ VGND VGND VPWR VPWR _0637_ sky130_fd_sc_hd__clkbuf_4
Xhold500 ram\[44\]\[2\] VGND VGND VPWR VPWR net523 sky130_fd_sc_hd__dlygate4sd3_1
X_1768_ _0567_ VGND VGND VPWR VPWR _0568_ sky130_fd_sc_hd__clkbuf_4
X_3507_ clknet_leaf_9_clk _0069_ VGND VGND VPWR VPWR ram\[13\]\[1\] sky130_fd_sc_hd__dfxtp_1
X_3438_ _0530_ net463 _0531_ VGND VGND VPWR VPWR _1718_ sky130_fd_sc_hd__mux2_1
X_3369_ _1681_ VGND VGND VPWR VPWR _0491_ sky130_fd_sc_hd__clkbuf_1
XTAP_TAPCELL_ROW_68_752 VGND VPWR sky130_fd_sc_hd__tapvpwrvgnd_1
XPHY_EDGE_ROW_11_Left_93 VGND VGND VPWR VPWR sky130_fd_sc_hd__decap_3
XFILLER_0_67_337 VGND VGND VPWR VPWR sky130_fd_sc_hd__decap_6
Xoutput20 net20 VGND VGND VPWR VPWR q[4] sky130_fd_sc_hd__clkbuf_4
XFILLER_0_58_348 VGND VGND VPWR VPWR sky130_fd_sc_hd__decap_6
XFILLER_0_66_381 VGND VGND VPWR VPWR sky130_fd_sc_hd__fill_1
X_2740_ _1083_ net393 _1329_ VGND VGND VPWR VPWR _1335_ sky130_fd_sc_hd__mux2_1
X_2671_ _1070_ net466 _1294_ VGND VGND VPWR VPWR _1295_ sky130_fd_sc_hd__mux2_1
XFILLER_0_1_334 VGND VGND VPWR VPWR sky130_fd_sc_hd__fill_2
X_3223_ _1604_ VGND VGND VPWR VPWR _0422_ sky130_fd_sc_hd__clkbuf_1
X_3154_ _1544_ net398 _1563_ VGND VGND VPWR VPWR _1567_ sky130_fd_sc_hd__mux2_1
X_2105_ _0590_ ram\[61\]\[5\] _0591_ VGND VGND VPWR VPWR _0900_ sky130_fd_sc_hd__a21o_1
XFILLER_0_27_94 VGND VGND VPWR VPWR sky130_fd_sc_hd__decap_6
X_3085_ _1526_ VGND VGND VPWR VPWR _0362_ sky130_fd_sc_hd__clkbuf_1
X_2036_ ram\[38\]\[4\] ram\[39\]\[4\] _0649_ VGND VGND VPWR VPWR _0832_ sky130_fd_sc_hd__mux2_1
XFILLER_0_49_337 VPWR VGND VPWR VGND sky130_ef_sc_hd__decap_12
XFILLER_0_9_445 VGND VGND VPWR VPWR sky130_fd_sc_hd__decap_3
X_2938_ _1446_ VGND VGND VPWR VPWR _0295_ sky130_fd_sc_hd__clkbuf_1
XFILLER_0_17_289 VGND VGND VPWR VPWR sky130_fd_sc_hd__decap_4
XTAP_TAPCELL_ROW_20_346 VGND VPWR sky130_fd_sc_hd__tapvpwrvgnd_1
X_2869_ _1407_ VGND VGND VPWR VPWR _0265_ sky130_fd_sc_hd__clkbuf_1
XFILLER_0_13_473 VPWR VGND VPWR VGND sky130_ef_sc_hd__decap_12
Xhold341 ram\[63\]\[4\] VGND VGND VPWR VPWR net364 sky130_fd_sc_hd__dlygate4sd3_1
Xhold330 ram\[2\]\[4\] VGND VGND VPWR VPWR net353 sky130_fd_sc_hd__dlygate4sd3_1
XFILLER_0_40_281 VGND VGND VPWR VPWR sky130_fd_sc_hd__fill_1
Xhold352 ram\[13\]\[5\] VGND VGND VPWR VPWR net375 sky130_fd_sc_hd__dlygate4sd3_1
XFILLER_0_7_93 VPWR VGND VPWR VGND sky130_ef_sc_hd__decap_12
Xhold385 ram\[56\]\[1\] VGND VGND VPWR VPWR net408 sky130_fd_sc_hd__dlygate4sd3_1
Xhold374 ram\[59\]\[1\] VGND VGND VPWR VPWR net397 sky130_fd_sc_hd__dlygate4sd3_1
Xhold396 ram\[14\]\[0\] VGND VGND VPWR VPWR net419 sky130_fd_sc_hd__dlygate4sd3_1
Xhold363 ram\[12\]\[5\] VGND VGND VPWR VPWR net386 sky130_fd_sc_hd__dlygate4sd3_1
XTAP_TAPCELL_ROW_28_413 VGND VPWR sky130_fd_sc_hd__tapvpwrvgnd_1
XFILLER_0_2_109 VPWR VGND VPWR VGND sky130_ef_sc_hd__decap_12
XFILLER_0_31_281 VGND VGND VPWR VPWR sky130_fd_sc_hd__fill_2
XFILLER_0_48_27 VGND VGND VPWR VPWR sky130_fd_sc_hd__fill_1
XTAP_TAPCELL_ROW_79_847 VGND VPWR sky130_fd_sc_hd__tapvpwrvgnd_1
XFILLER_0_64_15 VPWR VGND VPWR VGND sky130_ef_sc_hd__decap_12
XTAP_TAPCELL_ROW_62_703 VGND VPWR sky130_fd_sc_hd__tapvpwrvgnd_1
X_3910_ clknet_leaf_14_clk _0010_ VGND VGND VPWR VPWR _0004_ sky130_fd_sc_hd__dfxtp_4
XFILLER_0_46_307 VGND VGND VPWR VPWR sky130_fd_sc_hd__fill_1
X_3841_ clknet_leaf_22_clk _0403_ VGND VGND VPWR VPWR ram\[54\]\[7\] sky130_fd_sc_hd__dfxtp_1
X_3772_ clknet_leaf_20_clk _0334_ VGND VGND VPWR VPWR ram\[46\]\[2\] sky130_fd_sc_hd__dfxtp_1
XFILLER_0_73_137 VGND VGND VPWR VPWR sky130_fd_sc_hd__decap_6
X_2723_ net13 VGND VGND VPWR VPWR _1325_ sky130_fd_sc_hd__clkbuf_4
XFILLER_0_81_181 VPWR VGND VPWR VGND sky130_ef_sc_hd__decap_12
X_2654_ net184 _1181_ _1285_ VGND VGND VPWR VPWR _1286_ sky130_fd_sc_hd__mux2_1
XFILLER_0_10_410 VGND VGND VPWR VPWR sky130_fd_sc_hd__decap_6
X_2585_ _1070_ net121 _1248_ VGND VGND VPWR VPWR _1249_ sky130_fd_sc_hd__mux2_1
X_3206_ _1595_ VGND VGND VPWR VPWR _0414_ sky130_fd_sc_hd__clkbuf_1
XFILLER_0_38_82 VGND VGND VPWR VPWR sky130_fd_sc_hd__fill_2
X_3137_ _1544_ net491 _1554_ VGND VGND VPWR VPWR _1558_ sky130_fd_sc_hd__mux2_1
XFILLER_0_77_410 VGND VGND VPWR VPWR sky130_fd_sc_hd__fill_1
X_3068_ _1517_ VGND VGND VPWR VPWR _0354_ sky130_fd_sc_hd__clkbuf_1
X_2019_ _0573_ _0811_ _0815_ VGND VGND VPWR VPWR _0816_ sky130_fd_sc_hd__a21o_1
XFILLER_0_49_167 VGND VGND VPWR VPWR sky130_fd_sc_hd__fill_1
XTAP_TAPCELL_ROW_33_460 VGND VPWR sky130_fd_sc_hd__tapvpwrvgnd_1
XFILLER_0_13_281 VGND VGND VPWR VPWR sky130_fd_sc_hd__decap_3
Xhold171 ram\[54\]\[0\] VGND VGND VPWR VPWR net194 sky130_fd_sc_hd__dlygate4sd3_1
Xhold160 ram\[36\]\[0\] VGND VGND VPWR VPWR net183 sky130_fd_sc_hd__dlygate4sd3_1
Xhold182 ram\[7\]\[0\] VGND VGND VPWR VPWR net205 sky130_fd_sc_hd__dlygate4sd3_1
Xhold193 ram\[21\]\[0\] VGND VGND VPWR VPWR net216 sky130_fd_sc_hd__dlygate4sd3_1
XFILLER_0_3_429 VPWR VGND VPWR VGND sky130_ef_sc_hd__decap_12
XFILLER_0_59_15 VPWR VGND VPWR VGND sky130_ef_sc_hd__decap_12
X_2370_ net178 _1068_ _1115_ VGND VGND VPWR VPWR _1123_ sky130_fd_sc_hd__mux2_1
XTAP_TAPCELL_ROW_39_508 VGND VPWR sky130_fd_sc_hd__tapvpwrvgnd_1
XFILLER_0_75_69 VPWR VGND VPWR VGND sky130_ef_sc_hd__decap_12
XTAP_TAPCELL_ROW_47_574 VGND VPWR sky130_fd_sc_hd__tapvpwrvgnd_1
XFILLER_0_19_307 VGND VGND VPWR VPWR sky130_fd_sc_hd__fill_2
XFILLER_0_46_137 VGND VGND VPWR VPWR sky130_fd_sc_hd__decap_3
XFILLER_0_27_362 VGND VGND VPWR VPWR sky130_fd_sc_hd__decap_3
XTAP_TAPCELL_ROW_30_430 VGND VPWR sky130_fd_sc_hd__tapvpwrvgnd_1
X_3824_ clknet_leaf_23_clk _0386_ VGND VGND VPWR VPWR ram\[52\]\[6\] sky130_fd_sc_hd__dfxtp_1
XFILLER_0_74_468 VGND VGND VPWR VPWR sky130_fd_sc_hd__decap_8
XFILLER_0_27_373 VGND VGND VPWR VPWR sky130_fd_sc_hd__decap_3
X_3755_ clknet_leaf_20_clk _0317_ VGND VGND VPWR VPWR ram\[44\]\[1\] sky130_fd_sc_hd__dfxtp_1
X_2706_ net218 _1312_ _1313_ VGND VGND VPWR VPWR _1314_ sky130_fd_sc_hd__mux2_1
XFILLER_0_40_94 VGND VGND VPWR VPWR sky130_fd_sc_hd__decap_4
XFILLER_0_42_365 VGND VGND VPWR VPWR sky130_fd_sc_hd__decap_8
X_3686_ clknet_leaf_11_clk _0248_ VGND VGND VPWR VPWR ram\[35\]\[4\] sky130_fd_sc_hd__dfxtp_1
XPHY_EDGE_ROW_12_Right_12 VGND VGND VPWR VPWR sky130_fd_sc_hd__decap_3
X_2637_ net376 _1181_ _1276_ VGND VGND VPWR VPWR _1277_ sky130_fd_sc_hd__mux2_1
XFILLER_0_42_398 VGND VGND VPWR VPWR sky130_fd_sc_hd__fill_1
XFILLER_0_64_3 VPWR VGND VPWR VGND sky130_ef_sc_hd__decap_12
X_2568_ _1070_ net216 _1239_ VGND VGND VPWR VPWR _1240_ sky130_fd_sc_hd__mux2_1
X_2499_ net141 _1181_ _1202_ VGND VGND VPWR VPWR _1203_ sky130_fd_sc_hd__mux2_1
XFILLER_0_10_273 VGND VGND VPWR VPWR sky130_fd_sc_hd__decap_6
XFILLER_0_4_83 VGND VGND VPWR VPWR sky130_fd_sc_hd__fill_1
XPHY_EDGE_ROW_21_Right_21 VGND VGND VPWR VPWR sky130_fd_sc_hd__decap_3
XTAP_TAPCELL_ROW_81_875 VGND VPWR sky130_fd_sc_hd__tapvpwrvgnd_1
XTAP_TAPCELL_ROW_81_864 VGND VPWR sky130_fd_sc_hd__tapvpwrvgnd_1
XPHY_EDGE_ROW_67_Left_149 VGND VGND VPWR VPWR sky130_fd_sc_hd__decap_3
XFILLER_0_18_362 VGND VGND VPWR VPWR sky130_fd_sc_hd__fill_2
XFILLER_0_18_373 VGND VGND VPWR VPWR sky130_fd_sc_hd__decap_3
XPHY_EDGE_ROW_30_Right_30 VGND VGND VPWR VPWR sky130_fd_sc_hd__decap_3
XPHY_EDGE_ROW_76_Left_158 VGND VGND VPWR VPWR sky130_fd_sc_hd__decap_3
XFILLER_0_61_27 VPWR VGND VPWR VGND sky130_ef_sc_hd__decap_12
XFILLER_0_28_126 VGND VGND VPWR VPWR sky130_fd_sc_hd__fill_2
XFILLER_0_28_137 VGND VGND VPWR VPWR sky130_fd_sc_hd__decap_3
X_1870_ _0666_ _0667_ _0668_ _0560_ _0573_ VGND VGND VPWR VPWR _0669_ sky130_fd_sc_hd__o221a_1
XFILLER_0_9_39 VPWR VGND VPWR VGND sky130_ef_sc_hd__decap_12
X_3540_ clknet_leaf_42_clk _0102_ VGND VGND VPWR VPWR ram\[17\]\[2\] sky130_fd_sc_hd__dfxtp_1
XFILLER_0_3_204 VGND VGND VPWR VPWR sky130_fd_sc_hd__fill_1
XFILLER_0_10_53 VGND VGND VPWR VPWR sky130_fd_sc_hd__decap_8
XFILLER_0_24_365 VGND VGND VPWR VPWR sky130_fd_sc_hd__fill_1
X_3471_ clknet_leaf_5_clk _0033_ VGND VGND VPWR VPWR ram\[8\]\[5\] sky130_fd_sc_hd__dfxtp_1
X_2422_ _1154_ VGND VGND VPWR VPWR _0071_ sky130_fd_sc_hd__clkbuf_1
X_2353_ _0530_ _0535_ _0533_ VGND VGND VPWR VPWR _1113_ sky130_fd_sc_hd__or3b_4
XFILLER_0_19_51 VGND VGND VPWR VPWR sky130_fd_sc_hd__decap_4
X_2284_ net312 _1068_ _1054_ VGND VGND VPWR VPWR _1069_ sky130_fd_sc_hd__mux2_1
XFILLER_0_51_60 VGND VGND VPWR VPWR sky130_fd_sc_hd__fill_1
X_3807_ clknet_leaf_23_clk _0369_ VGND VGND VPWR VPWR ram\[50\]\[5\] sky130_fd_sc_hd__dfxtp_1
X_1999_ _0596_ _0795_ VGND VGND VPWR VPWR _0796_ sky130_fd_sc_hd__and2_1
X_3738_ clknet_leaf_19_clk _0300_ VGND VGND VPWR VPWR ram\[42\]\[0\] sky130_fd_sc_hd__dfxtp_1
XFILLER_0_30_324 VGND VGND VPWR VPWR sky130_fd_sc_hd__fill_1
XFILLER_0_42_184 VGND VGND VPWR VPWR sky130_fd_sc_hd__fill_1
X_3669_ clknet_leaf_11_clk _0231_ VGND VGND VPWR VPWR ram\[33\]\[3\] sky130_fd_sc_hd__dfxtp_1
XTAP_TAPCELL_ROW_7_236 VGND VPWR sky130_fd_sc_hd__tapvpwrvgnd_1
XTAP_TAPCELL_ROW_58_669 VGND VPWR sky130_fd_sc_hd__tapvpwrvgnd_1
XTAP_TAPCELL_ROW_41_525 VGND VPWR sky130_fd_sc_hd__tapvpwrvgnd_1
XFILLER_0_65_276 VGND VGND VPWR VPWR sky130_fd_sc_hd__decap_4
XFILLER_0_56_27 VGND VGND VPWR VPWR sky130_fd_sc_hd__fill_1
XFILLER_0_72_15 VPWR VGND VPWR VGND sky130_ef_sc_hd__decap_12
X_2971_ _1464_ VGND VGND VPWR VPWR _0310_ sky130_fd_sc_hd__clkbuf_1
XFILLER_0_8_307 VGND VGND VPWR VPWR sky130_fd_sc_hd__fill_1
X_1922_ _0568_ ram\[36\]\[2\] VGND VGND VPWR VPWR _0720_ sky130_fd_sc_hd__and2b_1
X_1853_ _0651_ ram\[25\]\[0\] _0652_ VGND VGND VPWR VPWR _0653_ sky130_fd_sc_hd__a21o_1
XFILLER_0_71_257 VGND VGND VPWR VPWR sky130_fd_sc_hd__fill_2
XTAP_TAPCELL_ROW_12_282 VGND VPWR sky130_fd_sc_hd__tapvpwrvgnd_1
X_1784_ _0583_ VGND VGND VPWR VPWR _0584_ sky130_fd_sc_hd__clkbuf_4
XFILLER_0_71_279 VGND VGND VPWR VPWR sky130_fd_sc_hd__fill_1
X_3523_ clknet_leaf_9_clk _0085_ VGND VGND VPWR VPWR ram\[15\]\[1\] sky130_fd_sc_hd__dfxtp_1
X_3454_ clknet_leaf_40_clk _0016_ VGND VGND VPWR VPWR ram\[7\]\[4\] sky130_fd_sc_hd__dfxtp_1
X_2405_ _1144_ VGND VGND VPWR VPWR _0064_ sky130_fd_sc_hd__clkbuf_1
XTAP_TAPCELL_ROW_4_206 VGND VPWR sky130_fd_sc_hd__tapvpwrvgnd_1
X_3385_ _1068_ net342 _1682_ VGND VGND VPWR VPWR _1690_ sky130_fd_sc_hd__mux2_1