*SPEF "ieee 1481-1999"
*DESIGN "single_port_ram"
*DATE "11:11:11 Fri 11 11, 1111"
*VENDOR "OpenRCX"
*PROGRAM "Parallel Extraction"
*VERSION "1.0"
*DESIGN_FLOW "NAME_SCOPE LOCAL" "PIN_CAP NONE"
*DIVIDER /
*DELIMITER :
*BUS_DELIMITER []
*T_UNIT 1 NS
*C_UNIT 1 PF
*R_UNIT 1 OHM
*L_UNIT 1 HENRY

*NAME_MAP
*3 addr[0]
*4 addr[1]
*5 addr[2]
*6 addr[3]
*7 addr[4]
*8 addr[5]
*9 clk
*10 data[0]
*11 data[1]
*12 data[2]
*13 data[3]
*14 data[4]
*15 data[5]
*16 data[6]
*17 data[7]
*18 q[0]
*19 q[1]
*20 q[2]
*21 q[3]
*22 q[4]
*23 q[5]
*24 q[6]
*25 q[7]
*26 we
*27 _0000_
*28 _0001_
*29 _0002_
*30 _0003_
*31 _0004_
*32 _0005_
*33 _0006_
*34 _0007_
*35 _0008_
*36 _0009_
*37 _0010_
*38 _0011_
*39 _0012_
*40 _0013_
*41 _0014_
*42 _0015_
*43 _0016_
*44 _0017_
*45 _0018_
*46 _0019_
*47 _0020_
*48 _0021_
*49 _0022_
*50 _0023_
*51 _0024_
*52 _0025_
*53 _0026_
*54 _0027_
*55 _0028_
*56 _0029_
*57 _0030_
*58 _0031_
*59 _0032_
*60 _0033_
*61 _0034_
*62 _0035_
*63 _0036_
*64 _0037_
*65 _0038_
*66 _0039_
*67 _0040_
*68 _0041_
*69 _0042_
*70 _0043_
*71 _0044_
*72 _0045_
*73 _0046_
*74 _0047_
*75 _0048_
*76 _0049_
*77 _0050_
*78 _0051_
*79 _0052_
*80 _0053_
*81 _0054_
*82 _0055_
*83 _0056_
*84 _0057_
*85 _0058_
*86 _0059_
*87 _0060_
*88 _0061_
*89 _0062_
*90 _0063_
*91 _0064_
*92 _0065_
*93 _0066_
*94 _0067_
*95 _0068_
*96 _0069_
*97 _0070_
*98 _0071_
*99 _0072_
*100 _0073_
*101 _0074_
*102 _0075_
*103 _0076_
*104 _0077_
*105 _0078_
*106 _0079_
*107 _0080_
*108 _0081_
*109 _0082_
*110 _0083_
*111 _0084_
*112 _0085_
*113 _0086_
*114 _0087_
*115 _0088_
*116 _0089_
*117 _0090_
*118 _0091_
*119 _0092_
*120 _0093_
*121 _0094_
*122 _0095_
*123 _0096_
*124 _0097_
*125 _0098_
*126 _0099_
*127 _0100_
*128 _0101_
*129 _0102_
*130 _0103_
*131 _0104_
*132 _0105_
*133 _0106_
*134 _0107_
*135 _0108_
*136 _0109_
*137 _0110_
*138 _0111_
*139 _0112_
*140 _0113_
*141 _0114_
*142 _0115_
*143 _0116_
*144 _0117_
*145 _0118_
*146 _0119_
*147 _0120_
*148 _0121_
*149 _0122_
*150 _0123_
*151 _0124_
*152 _0125_
*153 _0126_
*154 _0127_
*155 _0128_
*156 _0129_
*157 _0130_
*158 _0131_
*159 _0132_
*160 _0133_
*161 _0134_
*162 _0135_
*163 _0136_
*164 _0137_
*165 _0138_
*166 _0139_
*167 _0140_
*168 _0141_
*169 _0142_
*170 _0143_
*171 _0144_
*172 _0145_
*173 _0146_
*174 _0147_
*175 _0148_
*176 _0149_
*177 _0150_
*178 _0151_
*179 _0152_
*180 _0153_
*181 _0154_
*182 _0155_
*183 _0156_
*184 _0157_
*185 _0158_
*186 _0159_
*187 _0160_
*188 _0161_
*189 _0162_
*190 _0163_
*191 _0164_
*192 _0165_
*193 _0166_
*194 _0167_
*195 _0168_
*196 _0169_
*197 _0170_
*198 _0171_
*199 _0172_
*200 _0173_
*201 _0174_
*202 _0175_
*203 _0176_
*204 _0177_
*205 _0178_
*206 _0179_
*207 _0180_
*208 _0181_
*209 _0182_
*210 _0183_
*211 _0184_
*212 _0185_
*213 _0186_
*214 _0187_
*215 _0188_
*216 _0189_
*217 _0190_
*218 _0191_
*219 _0192_
*220 _0193_
*221 _0194_
*222 _0195_
*223 _0196_
*224 _0197_
*225 _0198_
*226 _0199_
*227 _0200_
*228 _0201_
*229 _0202_
*230 _0203_
*231 _0204_
*232 _0205_
*233 _0206_
*234 _0207_
*235 _0208_
*236 _0209_
*237 _0210_
*238 _0211_
*239 _0212_
*240 _0213_
*241 _0214_
*242 _0215_
*243 _0216_
*244 _0217_
*245 _0218_
*246 _0219_
*247 _0220_
*248 _0221_
*249 _0222_
*250 _0223_
*251 _0224_
*252 _0225_
*253 _0226_
*254 _0227_
*255 _0228_
*256 _0229_
*257 _0230_
*258 _0231_
*259 _0232_
*260 _0233_
*261 _0234_
*262 _0235_
*263 _0236_
*264 _0237_
*265 _0238_
*266 _0239_
*267 _0240_
*268 _0241_
*269 _0242_
*270 _0243_
*271 _0244_
*272 _0245_
*273 _0246_
*274 _0247_
*275 _0248_
*276 _0249_
*277 _0250_
*278 _0251_
*279 _0252_
*280 _0253_
*281 _0254_
*282 _0255_
*283 _0256_
*284 _0257_
*285 _0258_
*286 _0259_
*287 _0260_
*288 _0261_
*289 _0262_
*290 _0263_
*291 _0264_
*292 _0265_
*293 _0266_
*294 _0267_
*295 _0268_
*296 _0269_
*297 _0270_
*298 _0271_
*299 _0272_
*300 _0273_
*301 _0274_
*302 _0275_
*303 _0276_
*304 _0277_
*305 _0278_
*306 _0279_
*307 _0280_
*308 _0281_
*309 _0282_
*310 _0283_
*311 _0284_
*312 _0285_
*313 _0286_
*314 _0287_
*315 _0288_
*316 _0289_
*317 _0290_
*318 _0291_
*319 _0292_
*320 _0293_
*321 _0294_
*322 _0295_
*323 _0296_
*324 _0297_
*325 _0298_
*326 _0299_
*327 _0300_
*328 _0301_
*329 _0302_
*330 _0303_
*331 _0304_
*332 _0305_
*333 _0306_
*334 _0307_
*335 _0308_
*336 _0309_
*337 _0310_
*338 _0311_
*339 _0312_
*340 _0313_
*341 _0314_
*342 _0315_
*343 _0316_
*344 _0317_
*345 _0318_
*346 _0319_
*347 _0320_
*348 _0321_
*349 _0322_
*350 _0323_
*351 _0324_
*352 _0325_
*353 _0326_
*354 _0327_
*355 _0328_
*356 _0329_
*357 _0330_
*358 _0331_
*359 _0332_
*360 _0333_
*361 _0334_
*362 _0335_
*363 _0336_
*364 _0337_
*365 _0338_
*366 _0339_
*367 _0340_
*368 _0341_
*369 _0342_
*370 _0343_
*371 _0344_
*372 _0345_
*373 _0346_
*374 _0347_
*375 _0348_
*376 _0349_
*377 _0350_
*378 _0351_
*379 _0352_
*380 _0353_
*381 _0354_
*382 _0355_
*383 _0356_
*384 _0357_
*385 _0358_
*386 _0359_
*387 _0360_
*388 _0361_
*389 _0362_
*390 _0363_
*391 _0364_
*392 _0365_
*393 _0366_
*394 _0367_
*395 _0368_
*396 _0369_
*397 _0370_
*398 _0371_
*399 _0372_
*400 _0373_
*401 _0374_
*402 _0375_
*403 _0376_
*404 _0377_
*405 _0378_
*406 _0379_
*407 _0380_
*408 _0381_
*409 _0382_
*410 _0383_
*411 _0384_
*412 _0385_
*413 _0386_
*414 _0387_
*415 _0388_
*416 _0389_
*417 _0390_
*418 _0391_
*419 _0392_
*420 _0393_
*421 _0394_
*422 _0395_
*423 _0396_
*424 _0397_
*425 _0398_
*426 _0399_
*427 _0400_
*428 _0401_
*429 _0402_
*430 _0403_
*431 _0404_
*432 _0405_
*433 _0406_
*434 _0407_
*435 _0408_
*436 _0409_
*437 _0410_
*438 _0411_
*439 _0412_
*440 _0413_
*441 _0414_
*442 _0415_
*443 _0416_
*444 _0417_
*445 _0418_
*446 _0419_
*447 _0420_
*448 _0421_
*449 _0422_
*450 _0423_
*451 _0424_
*452 _0425_
*453 _0426_
*454 _0427_
*455 _0428_
*456 _0429_
*457 _0430_
*458 _0431_
*459 _0432_
*460 _0433_
*461 _0434_
*462 _0435_
*463 _0436_
*464 _0437_
*465 _0438_
*466 _0439_
*467 _0440_
*468 _0441_
*469 _0442_
*470 _0443_
*471 _0444_
*472 _0445_
*473 _0446_
*474 _0447_
*475 _0448_
*476 _0449_
*477 _0450_
*478 _0451_
*479 _0452_
*480 _0453_
*481 _0454_
*482 _0455_
*483 _0456_
*484 _0457_
*485 _0458_
*486 _0459_
*487 _0460_
*488 _0461_
*489 _0462_
*490 _0463_
*491 _0464_
*492 _0465_
*493 _0466_
*494 _0467_
*495 _0468_
*496 _0469_
*497 _0470_
*498 _0471_
*499 _0472_
*500 _0473_
*501 _0474_
*502 _0475_
*503 _0476_
*504 _0477_
*505 _0478_
*506 _0479_
*507 _0480_
*508 _0481_
*509 _0482_
*510 _0483_
*511 _0484_
*512 _0485_
*513 _0486_
*514 _0487_
*515 _0488_
*516 _0489_
*517 _0490_
*518 _0491_
*519 _0492_
*520 _0493_
*521 _0494_
*522 _0495_
*523 _0496_
*524 _0497_
*525 _0498_
*526 _0499_
*527 _0500_
*528 _0501_
*529 _0502_
*530 _0503_
*531 _0504_
*532 _0505_
*533 _0506_
*534 _0507_
*535 _0508_
*536 _0509_
*537 _0510_
*538 _0511_
*539 _0512_
*540 _0513_
*541 _0514_
*542 _0515_
*543 _0516_
*544 _0517_
*545 _0518_
*546 _0519_
*547 _0520_
*548 _0521_
*549 _0522_
*550 _0523_
*551 _0524_
*552 _0525_
*553 _0526_
*554 _0527_
*555 _0528_
*556 _0529_
*557 _0530_
*558 _0531_
*559 _0532_
*560 _0533_
*561 _0534_
*562 _0535_
*563 _0536_
*564 _0537_
*565 _0538_
*566 _0539_
*567 _0540_
*568 _0541_
*569 _0542_
*570 _0543_
*571 _0544_
*572 _0545_
*573 _0546_
*574 _0547_
*575 _0548_
*576 _0549_
*577 _0550_
*578 _0551_
*579 _0552_
*580 _0553_
*581 _0554_
*582 _0555_
*583 _0556_
*584 _0557_
*585 _0558_
*586 _0559_
*587 _0560_
*588 _0561_
*589 _0562_
*590 _0563_
*591 _0564_
*592 _0565_
*593 _0566_
*594 _0567_
*595 _0568_
*596 _0569_
*597 _0570_
*598 _0571_
*599 _0572_
*600 _0573_
*601 _0574_
*602 _0575_
*603 _0576_
*604 _0577_
*605 _0578_
*606 _0579_
*607 _0580_
*608 _0581_
*609 _0582_
*610 _0583_
*611 _0584_
*612 _0585_
*613 _0586_
*614 _0587_
*615 _0588_
*616 _0589_
*617 _0590_
*618 _0591_
*619 _0592_
*620 _0593_
*621 _0594_
*622 _0595_
*623 _0596_
*624 _0597_
*625 _0598_
*626 _0599_
*627 _0600_
*628 _0601_
*629 _0602_
*630 _0603_
*631 _0604_
*632 _0605_
*633 _0606_
*634 _0607_
*635 _0608_
*636 _0609_
*637 _0610_
*638 _0611_
*639 _0612_
*640 _0613_
*641 _0614_
*642 _0615_
*643 _0616_
*644 _0617_
*645 _0618_
*646 _0619_
*647 _0620_
*648 _0621_
*649 _0622_
*650 _0623_
*651 _0624_
*652 _0625_
*653 _0626_
*654 _0627_
*655 _0628_
*656 _0629_
*657 _0630_
*658 _0631_
*659 _0632_
*660 _0633_
*661 _0634_
*662 _0635_
*663 _0636_
*664 _0637_
*665 _0638_
*666 _0639_
*667 _0640_
*668 _0641_
*669 _0642_
*670 _0643_
*671 _0644_
*672 _0645_
*673 _0646_
*674 _0647_
*675 _0648_
*676 _0649_
*677 _0650_
*678 _0651_
*679 _0652_
*680 _0653_
*681 _0654_
*682 _0655_
*683 _0656_
*684 _0657_
*685 _0658_
*686 _0659_
*687 _0660_
*688 _0661_
*689 _0662_
*690 _0663_
*691 _0664_
*692 _0665_
*693 _0666_
*694 _0667_
*695 _0668_
*696 _0669_
*697 _0670_
*698 _0671_
*699 _0672_
*700 _0673_
*701 _0674_
*702 _0675_
*703 _0676_
*704 _0677_
*705 _0678_
*706 _0679_
*707 _0680_
*708 _0681_
*709 _0682_
*710 _0683_
*711 _0684_
*712 _0685_
*713 _0686_
*714 _0687_
*715 _0688_
*716 _0689_
*717 _0690_
*718 _0691_
*719 _0692_
*720 _0693_
*721 _0694_
*722 _0695_
*723 _0696_
*724 _0697_
*725 _0698_
*726 _0699_
*727 _0700_
*728 _0701_
*729 _0702_
*730 _0703_
*731 _0704_
*732 _0705_
*733 _0706_
*734 _0707_
*735 _0708_
*736 _0709_
*737 _0710_
*738 _0711_
*739 _0712_
*740 _0713_
*741 _0714_
*742 _0715_
*743 _0716_
*744 _0717_
*745 _0718_
*746 _0719_
*747 _0720_
*748 _0721_
*749 _0722_
*750 _0723_
*751 _0724_
*752 _0725_
*753 _0726_
*754 _0727_
*755 _0728_
*756 _0729_
*757 _0730_
*758 _0731_
*759 _0732_
*760 _0733_
*761 _0734_
*762 _0735_
*763 _0736_
*764 _0737_
*765 _0738_
*766 _0739_
*767 _0740_
*768 _0741_
*769 _0742_
*770 _0743_
*771 _0744_
*772 _0745_
*773 _0746_
*774 _0747_
*775 _0748_
*776 _0749_
*777 _0750_
*778 _0751_
*779 _0752_
*780 _0753_
*781 _0754_
*782 _0755_
*783 _0756_
*784 _0757_
*785 _0758_
*786 _0759_
*787 _0760_
*788 _0761_
*789 _0762_
*790 _0763_
*791 _0764_
*792 _0765_
*793 _0766_
*794 _0767_
*795 _0768_
*796 _0769_
*797 _0770_
*798 _0771_
*799 _0772_
*800 _0773_
*801 _0774_
*802 _0775_
*803 _0776_
*804 _0777_
*805 _0778_
*806 _0779_
*807 _0780_
*808 _0781_
*809 _0782_
*810 _0783_
*811 _0784_
*812 _0785_
*813 _0786_
*814 _0787_
*815 _0788_
*816 _0789_
*817 _0790_
*818 _0791_
*819 _0792_
*820 _0793_
*821 _0794_
*822 _0795_
*823 _0796_
*824 _0797_
*825 _0798_
*826 _0799_
*827 _0800_
*828 _0801_
*829 _0802_
*830 _0803_
*831 _0804_
*832 _0805_
*833 _0806_
*834 _0807_
*835 _0808_
*836 _0809_
*837 _0810_
*838 _0811_
*839 _0812_
*840 _0813_
*841 _0814_
*842 _0815_
*843 _0816_
*844 _0817_
*845 _0818_
*846 _0819_
*847 _0820_
*848 _0821_
*849 _0822_
*850 _0823_
*851 _0824_
*852 _0825_
*853 _0826_
*854 _0827_
*855 _0828_
*856 _0829_
*857 _0830_
*858 _0831_
*859 _0832_
*860 _0833_
*861 _0834_
*862 _0835_
*863 _0836_
*864 _0837_
*865 _0838_
*866 _0839_
*867 _0840_
*868 _0841_
*869 _0842_
*870 _0843_
*871 _0844_
*872 _0845_
*873 _0846_
*874 _0847_
*875 _0848_
*876 _0849_
*877 _0850_
*878 _0851_
*879 _0852_
*880 _0853_
*881 _0854_
*882 _0855_
*883 _0856_
*884 _0857_
*885 _0858_
*886 _0859_
*887 _0860_
*888 _0861_
*889 _0862_
*890 _0863_
*891 _0864_
*892 _0865_
*893 _0866_
*894 _0867_
*895 _0868_
*896 _0869_
*897 _0870_
*898 _0871_
*899 _0872_
*900 _0873_
*901 _0874_
*902 _0875_
*903 _0876_
*904 _0877_
*905 _0878_
*906 _0879_
*907 _0880_
*908 _0881_
*909 _0882_
*910 _0883_
*911 _0884_
*912 _0885_
*913 _0886_
*914 _0887_
*915 _0888_
*916 _0889_
*917 _0890_
*918 _0891_
*919 _0892_
*920 _0893_
*921 _0894_
*922 _0895_
*923 _0896_
*924 _0897_
*925 _0898_
*926 _0899_
*927 _0900_
*928 _0901_
*929 _0902_
*930 _0903_
*931 _0904_
*932 _0905_
*933 _0906_
*934 _0907_
*935 _0908_
*936 _0909_
*937 _0910_
*938 _0911_
*939 _0912_
*940 _0913_
*941 _0914_
*942 _0915_
*943 _0916_
*944 _0917_
*945 _0918_
*946 _0919_
*947 _0920_
*948 _0921_
*949 _0922_
*950 _0923_
*951 _0924_
*952 _0925_
*953 _0926_
*954 _0927_
*955 _0928_
*956 _0929_
*957 _0930_
*958 _0931_
*959 _0932_
*960 _0933_
*961 _0934_
*962 _0935_
*963 _0936_
*964 _0937_
*965 _0938_
*966 _0939_
*967 _0940_
*968 _0941_
*969 _0942_
*970 _0943_
*971 _0944_
*972 _0945_
*973 _0946_
*974 _0947_
*975 _0948_
*976 _0949_
*977 _0950_
*978 _0951_
*979 _0952_
*980 _0953_
*981 _0954_
*982 _0955_
*983 _0956_
*984 _0957_
*985 _0958_
*986 _0959_
*987 _0960_
*988 _0961_
*989 _0962_
*990 _0963_
*991 _0964_
*992 _0965_
*993 _0966_
*994 _0967_
*995 _0968_
*996 _0969_
*997 _0970_
*998 _0971_
*999 _0972_
*1000 _0973_
*1001 _0974_
*1002 _0975_
*1003 _0976_
*1004 _0977_
*1005 _0978_
*1006 _0979_
*1007 _0980_
*1008 _0981_
*1009 _0982_
*1010 _0983_
*1011 _0984_
*1012 _0985_
*1013 _0986_
*1014 _0987_
*1015 _0988_
*1016 _0989_
*1017 _0990_
*1018 _0991_
*1019 _0992_
*1020 _0993_
*1021 _0994_
*1022 _0995_
*1023 _0996_
*1024 _0997_
*1025 _0998_
*1026 _0999_
*1027 _1000_
*1028 _1001_
*1029 _1002_
*1030 _1003_
*1031 _1004_
*1032 _1005_
*1033 _1006_
*1034 _1007_
*1035 _1008_
*1036 _1009_
*1037 _1010_
*1038 _1011_
*1039 _1012_
*1040 _1013_
*1041 _1014_
*1042 _1015_
*1043 _1016_
*1044 _1017_
*1045 _1018_
*1046 _1019_
*1047 _1020_
*1048 _1021_
*1049 _1022_
*1050 _1023_
*1051 _1024_
*1052 _1025_
*1053 _1026_
*1054 _1027_
*1055 _1028_
*1056 _1029_
*1057 _1030_
*1058 _1031_
*1059 _1032_
*1060 _1033_
*1061 _1034_
*1062 _1035_
*1063 _1036_
*1064 _1037_
*1065 _1038_
*1066 _1039_
*1067 _1040_
*1068 _1041_
*1069 _1042_
*1070 _1043_
*1071 _1044_
*1072 _1045_
*1073 _1046_
*1074 _1047_
*1075 _1048_
*1076 _1049_
*1077 _1050_
*1078 _1051_
*1079 _1052_
*1080 _1053_
*1081 _1054_
*1082 _1055_
*1083 _1056_
*1084 _1057_
*1085 _1058_
*1086 _1059_
*1087 _1060_
*1088 _1061_
*1089 _1062_
*1090 _1063_
*1091 _1064_
*1092 _1065_
*1093 _1066_
*1094 _1067_
*1095 _1068_
*1096 _1069_
*1097 _1070_
*1098 _1071_
*1099 _1072_
*1100 _1073_
*1101 _1074_
*1102 _1075_
*1103 _1076_
*1104 _1077_
*1105 _1078_
*1106 _1079_
*1107 _1080_
*1108 _1081_
*1109 _1082_
*1110 _1083_
*1111 _1084_
*1112 _1085_
*1113 _1086_
*1114 _1087_
*1115 _1088_
*1116 _1089_
*1117 _1090_
*1118 _1091_
*1119 _1092_
*1120 _1093_
*1121 _1094_
*1122 _1095_
*1123 _1096_
*1124 _1097_
*1125 _1098_
*1126 _1099_
*1127 _1100_
*1128 _1101_
*1129 _1102_
*1130 _1103_
*1131 _1104_
*1132 _1105_
*1133 _1106_
*1134 _1107_
*1135 _1108_
*1136 _1109_
*1137 _1110_
*1138 _1111_
*1139 _1112_
*1140 _1113_
*1141 _1114_
*1142 _1115_
*1143 _1116_
*1144 _1117_
*1145 _1118_
*1146 _1119_
*1147 _1120_
*1148 _1121_
*1149 _1122_
*1150 _1123_
*1151 _1124_
*1152 _1125_
*1153 _1126_
*1154 _1127_
*1155 _1128_
*1156 _1129_
*1157 _1130_
*1158 _1131_
*1159 _1132_
*1160 _1133_
*1161 _1134_
*1162 _1135_
*1163 _1136_
*1164 _1137_
*1165 _1138_
*1166 _1139_
*1167 _1140_
*1168 _1141_
*1169 _1142_
*1170 _1143_
*1171 _1144_
*1172 _1145_
*1173 _1146_
*1174 _1147_
*1175 _1148_
*1176 _1149_
*1177 _1150_
*1178 _1151_
*1179 _1152_
*1180 _1153_
*1181 _1154_
*1182 _1155_
*1183 _1156_
*1184 _1157_
*1185 _1158_
*1186 _1159_
*1187 _1160_
*1188 _1161_
*1189 _1162_
*1190 _1163_
*1191 _1164_
*1192 _1165_
*1193 _1166_
*1194 _1167_
*1195 _1168_
*1196 _1169_
*1197 _1170_
*1198 _1171_
*1199 _1172_
*1200 _1173_
*1201 _1174_
*1202 _1175_
*1203 _1176_
*1204 _1177_
*1205 _1178_
*1206 _1179_
*1207 _1180_
*1208 _1181_
*1209 _1182_
*1210 _1183_
*1211 _1184_
*1212 _1185_
*1213 _1186_
*1214 _1187_
*1215 _1188_
*1216 _1189_
*1217 _1190_
*1218 _1191_
*1219 _1192_
*1220 _1193_
*1221 _1194_
*1222 _1195_
*1223 _1196_
*1224 _1197_
*1225 _1198_
*1226 _1199_
*1227 _1200_
*1228 _1201_
*1229 _1202_
*1230 _1203_
*1231 _1204_
*1232 _1205_
*1233 _1206_
*1234 _1207_
*1235 _1208_
*1236 _1209_
*1237 _1210_
*1238 _1211_
*1239 _1212_
*1240 _1213_
*1241 _1214_
*1242 _1215_
*1243 _1216_
*1244 _1217_
*1245 _1218_
*1246 _1219_
*1247 _1220_
*1248 _1221_
*1249 _1222_
*1250 _1223_
*1251 _1224_
*1252 _1225_
*1253 _1226_
*1254 _1227_
*1255 _1228_
*1256 _1229_
*1257 _1230_
*1258 _1231_
*1259 _1232_
*1260 _1233_
*1261 _1234_
*1262 _1235_
*1263 _1236_
*1264 _1237_
*1265 _1238_
*1266 _1239_
*1267 _1240_
*1268 _1241_
*1269 _1242_
*1270 _1243_
*1271 _1244_
*1272 _1245_
*1273 _1246_
*1274 _1247_
*1275 _1248_
*1276 _1249_
*1277 _1250_
*1278 _1251_
*1279 _1252_
*1280 _1253_
*1281 _1254_
*1282 _1255_
*1283 _1256_
*1284 _1257_
*1285 _1258_
*1286 _1259_
*1287 _1260_
*1288 _1261_
*1289 _1262_
*1290 _1263_
*1291 _1264_
*1292 _1265_
*1293 _1266_
*1294 _1267_
*1295 _1268_
*1296 _1269_
*1297 _1270_
*1298 _1271_
*1299 _1272_
*1300 _1273_
*1301 _1274_
*1302 _1275_
*1303 _1276_
*1304 _1277_
*1305 _1278_
*1306 _1279_
*1307 _1280_
*1308 _1281_
*1309 _1282_
*1310 _1283_
*1311 _1284_
*1312 _1285_
*1313 _1286_
*1314 _1287_
*1315 _1288_
*1316 _1289_
*1317 _1290_
*1318 _1291_
*1319 _1292_
*1320 _1293_
*1321 _1294_
*1322 _1295_
*1323 _1296_
*1324 _1297_
*1325 _1298_
*1326 _1299_
*1327 _1300_
*1328 _1301_
*1329 _1302_
*1330 _1303_
*1331 _1304_
*1332 _1305_
*1333 _1306_
*1334 _1307_
*1335 _1308_
*1336 _1309_
*1337 _1310_
*1338 _1311_
*1339 _1312_
*1340 _1313_
*1341 _1314_
*1342 _1315_
*1343 _1316_
*1344 _1317_
*1345 _1318_
*1346 _1319_
*1347 _1320_
*1348 _1321_
*1349 _1322_
*1350 _1323_
*1351 _1324_
*1352 _1325_
*1353 _1326_
*1354 _1327_
*1355 _1328_
*1356 _1329_
*1357 _1330_
*1358 _1331_
*1359 _1332_
*1360 _1333_
*1361 _1334_
*1362 _1335_
*1363 _1336_
*1364 _1337_
*1365 _1338_
*1366 _1339_
*1367 _1340_
*1368 _1341_
*1369 _1342_
*1370 _1343_
*1371 _1344_
*1372 _1345_
*1373 _1346_
*1374 _1347_
*1375 _1348_
*1376 _1349_
*1377 _1350_
*1378 _1351_
*1379 _1352_
*1380 _1353_
*1381 _1354_
*1382 _1355_
*1383 _1356_
*1384 _1357_
*1385 _1358_
*1386 _1359_
*1387 _1360_
*1388 _1361_
*1389 _1362_
*1390 _1363_
*1391 _1364_
*1392 _1365_
*1393 _1366_
*1394 _1367_
*1395 _1368_
*1396 _1369_
*1397 _1370_
*1398 _1371_
*1399 _1372_
*1400 _1373_
*1401 _1374_
*1402 _1375_
*1403 _1376_
*1404 _1377_
*1405 _1378_
*1406 _1379_
*1407 _1380_
*1408 _1381_
*1409 _1382_
*1410 _1383_
*1411 _1384_
*1412 _1385_
*1413 _1386_
*1414 _1387_
*1415 _1388_
*1416 _1389_
*1417 _1390_
*1418 _1391_
*1419 _1392_
*1420 _1393_
*1421 _1394_
*1422 _1395_
*1423 _1396_
*1424 _1397_
*1425 _1398_
*1426 _1399_
*1427 _1400_
*1428 _1401_
*1429 _1402_
*1430 _1403_
*1431 _1404_
*1432 _1405_
*1433 _1406_
*1434 _1407_
*1435 _1408_
*1436 _1409_
*1437 _1410_
*1438 _1411_
*1439 _1412_
*1440 _1413_
*1441 _1414_
*1442 _1415_
*1443 _1416_
*1444 _1417_
*1445 _1418_
*1446 _1419_
*1447 _1420_
*1448 _1421_
*1449 _1422_
*1450 _1423_
*1451 _1424_
*1452 _1425_
*1453 _1426_
*1454 _1427_
*1455 _1428_
*1456 _1429_
*1457 _1430_
*1458 _1431_
*1459 _1432_
*1460 _1433_
*1461 _1434_
*1462 _1435_
*1463 _1436_
*1464 _1437_
*1465 _1438_
*1466 _1439_
*1467 _1440_
*1468 _1441_
*1469 _1442_
*1470 _1443_
*1471 _1444_
*1472 _1445_
*1473 _1446_
*1474 _1447_
*1475 _1448_
*1476 _1449_
*1477 _1450_
*1478 _1451_
*1479 _1452_
*1480 _1453_
*1481 _1454_
*1482 _1455_
*1483 _1456_
*1484 _1457_
*1485 _1458_
*1486 _1459_
*1487 _1460_
*1488 _1461_
*1489 _1462_
*1490 _1463_
*1491 _1464_
*1492 _1465_
*1493 _1466_
*1494 _1467_
*1495 _1468_
*1496 _1469_
*1497 _1470_
*1498 _1471_
*1499 _1472_
*1500 _1473_
*1501 _1474_
*1502 _1475_
*1503 _1476_
*1504 _1477_
*1505 _1478_
*1506 _1479_
*1507 _1480_
*1508 _1481_
*1509 _1482_
*1510 _1483_
*1511 _1484_
*1512 _1485_
*1513 _1486_
*1514 _1487_
*1515 _1488_
*1516 _1489_
*1517 _1490_
*1518 _1491_
*1519 _1492_
*1520 _1493_
*1521 _1494_
*1522 _1495_
*1523 _1496_
*1524 _1497_
*1525 _1498_
*1526 _1499_
*1527 _1500_
*1528 _1501_
*1529 _1502_
*1530 _1503_
*1531 _1504_
*1532 _1505_
*1533 _1506_
*1534 _1507_
*1535 _1508_
*1536 _1509_
*1537 _1510_
*1538 _1511_
*1539 _1512_
*1540 _1513_
*1541 _1514_
*1542 _1515_
*1543 _1516_
*1544 _1517_
*1545 _1518_
*1546 _1519_
*1547 _1520_
*1548 _1521_
*1549 _1522_
*1550 _1523_
*1551 _1524_
*1552 _1525_
*1553 _1526_
*1554 _1527_
*1555 _1528_
*1556 _1529_
*1557 _1530_
*1558 _1531_
*1559 _1532_
*1560 _1533_
*1561 _1534_
*1562 _1535_
*1563 _1536_
*1564 _1537_
*1565 _1538_
*1566 _1539_
*1567 _1540_
*1568 _1541_
*1569 _1542_
*1570 _1543_
*1571 _1544_
*1572 _1545_
*1573 _1546_
*1574 _1547_
*1575 _1548_
*1576 _1549_
*1577 _1550_
*1578 _1551_
*1579 _1552_
*1580 _1553_
*1581 _1554_
*1582 _1555_
*1583 _1556_
*1584 _1557_
*1585 _1558_
*1586 _1559_
*1587 _1560_
*1588 _1561_
*1589 _1562_
*1590 _1563_
*1591 _1564_
*1592 _1565_
*1593 _1566_
*1594 _1567_
*1595 _1568_
*1596 _1569_
*1597 _1570_
*1598 _1571_
*1599 _1572_
*1600 _1573_
*1601 _1574_
*1602 _1575_
*1603 _1576_
*1604 _1577_
*1605 _1578_
*1606 _1579_
*1607 _1580_
*1608 _1581_
*1609 _1582_
*1610 _1583_
*1611 _1584_
*1612 _1585_
*1613 _1586_
*1614 _1587_
*1615 _1588_
*1616 _1589_
*1617 _1590_
*1618 _1591_
*1619 _1592_
*1620 _1593_
*1621 _1594_
*1622 _1595_
*1623 _1596_
*1624 _1597_
*1625 _1598_
*1626 _1599_
*1627 _1600_
*1628 _1601_
*1629 _1602_
*1630 _1603_
*1631 _1604_
*1632 _1605_
*1633 _1606_
*1634 _1607_
*1635 _1608_
*1636 _1609_
*1637 _1610_
*1638 _1611_
*1639 _1612_
*1640 _1613_
*1641 _1614_
*1642 _1615_
*1643 _1616_
*1644 _1617_
*1645 _1618_
*1646 _1619_
*1647 _1620_
*1648 _1621_
*1649 _1622_
*1650 _1623_
*1651 _1624_
*1652 _1625_
*1653 _1626_
*1654 _1627_
*1655 _1628_
*1656 _1629_
*1657 _1630_
*1658 _1631_
*1659 _1632_
*1660 _1633_
*1661 _1634_
*1662 _1635_
*1663 _1636_
*1664 _1637_
*1665 _1638_
*1666 _1639_
*1667 _1640_
*1668 _1641_
*1669 _1642_
*1670 _1643_
*1671 _1644_
*1672 _1645_
*1673 _1646_
*1674 _1647_
*1675 _1648_
*1676 _1649_
*1677 _1650_
*1678 _1651_
*1679 _1652_
*1680 _1653_
*1681 _1654_
*1682 _1655_
*1683 _1656_
*1684 _1657_
*1685 _1658_
*1686 _1659_
*1687 _1660_
*1688 _1661_
*1689 _1662_
*1690 _1663_
*1691 _1664_
*1692 _1665_
*1693 _1666_
*1694 _1667_
*1695 _1668_
*1696 _1669_
*1697 _1670_
*1698 _1671_
*1699 _1672_
*1700 _1673_
*1701 _1674_
*1702 _1675_
*1703 _1676_
*1704 _1677_
*1705 _1678_
*1706 _1679_
*1707 _1680_
*1708 _1681_
*1709 _1682_
*1710 _1683_
*1711 _1684_
*1712 _1685_
*1713 _1686_
*1714 _1687_
*1715 _1688_
*1716 _1689_
*1717 _1690_
*1718 _1691_
*1719 _1692_
*1720 _1693_
*1721 _1694_
*1722 _1695_
*1723 _1696_
*1724 _1697_
*1725 _1698_
*1726 _1699_
*1727 _1700_
*1728 _1701_
*1729 _1702_
*1730 _1703_
*1731 _1704_
*1732 _1705_
*1733 _1706_
*1734 _1707_
*1735 _1708_
*1736 _1709_
*1737 _1710_
*1738 _1711_
*1739 _1712_
*1740 _1713_
*1741 _1714_
*1742 _1715_
*1743 _1716_
*1744 _1717_
*1745 _1718_
*1746 _1719_
*1747 _1720_
*1748 _1721_
*1749 _1722_
*1750 _1723_
*1751 addr_reg\[0\]
*1752 addr_reg\[1\]
*1753 addr_reg\[2\]
*1754 addr_reg\[3\]
*1755 addr_reg\[4\]
*1756 addr_reg\[5\]
*1757 clknet_0_clk
*1758 clknet_2_0__leaf_clk
*1759 clknet_2_1__leaf_clk
*1760 clknet_2_2__leaf_clk
*1761 clknet_2_3__leaf_clk
*1762 clknet_leaf_0_clk
*1763 clknet_leaf_10_clk
*1764 clknet_leaf_11_clk
*1765 clknet_leaf_12_clk
*1766 clknet_leaf_13_clk
*1767 clknet_leaf_14_clk
*1768 clknet_leaf_15_clk
*1769 clknet_leaf_16_clk
*1770 clknet_leaf_17_clk
*1771 clknet_leaf_18_clk
*1772 clknet_leaf_19_clk
*1773 clknet_leaf_1_clk
*1774 clknet_leaf_20_clk
*1775 clknet_leaf_21_clk
*1776 clknet_leaf_22_clk
*1777 clknet_leaf_23_clk
*1778 clknet_leaf_24_clk
*1779 clknet_leaf_25_clk
*1780 clknet_leaf_26_clk
*1781 clknet_leaf_27_clk
*1782 clknet_leaf_28_clk
*1783 clknet_leaf_29_clk
*1784 clknet_leaf_2_clk
*1785 clknet_leaf_30_clk
*1786 clknet_leaf_31_clk
*1787 clknet_leaf_32_clk
*1788 clknet_leaf_33_clk
*1789 clknet_leaf_34_clk
*1790 clknet_leaf_35_clk
*1791 clknet_leaf_36_clk
*1792 clknet_leaf_37_clk
*1793 clknet_leaf_38_clk
*1794 clknet_leaf_39_clk
*1795 clknet_leaf_3_clk
*1796 clknet_leaf_40_clk
*1797 clknet_leaf_41_clk
*1798 clknet_leaf_42_clk
*1799 clknet_leaf_43_clk
*1800 clknet_leaf_44_clk
*1801 clknet_leaf_4_clk
*1802 clknet_leaf_5_clk
*1803 clknet_leaf_6_clk
*1804 clknet_leaf_7_clk
*1805 clknet_leaf_8_clk
*1806 clknet_leaf_9_clk
*1807 net1
*1808 net10
*1809 net100
*1810 net101
*1811 net102
*1812 net103
*1813 net104
*1814 net105
*1815 net106
*1816 net107
*1817 net108
*1818 net109
*1819 net11
*1820 net110
*1821 net111
*1822 net112
*1823 net113
*1824 net114
*1825 net115
*1826 net116
*1827 net117
*1828 net118
*1829 net119
*1830 net12
*1831 net120
*1832 net121
*1833 net122
*1834 net123
*1835 net124
*1836 net125
*1837 net126
*1838 net127
*1839 net128
*1840 net129
*1841 net13
*1842 net130
*1843 net131
*1844 net132
*1845 net133
*1846 net134
*1847 net135
*1848 net136
*1849 net137
*1850 net138
*1851 net139
*1852 net14
*1853 net140
*1854 net141
*1855 net142
*1856 net143
*1857 net144
*1858 net145
*1859 net146
*1860 net147
*1861 net148
*1862 net149
*1863 net15
*1864 net150
*1865 net151
*1866 net152
*1867 net153
*1868 net154
*1869 net155
*1870 net156
*1871 net157
*1872 net158
*1873 net159
*1874 net16
*1875 net160
*1876 net161
*1877 net162
*1878 net163
*1879 net164
*1880 net165
*1881 net166
*1882 net167
*1883 net168
*1884 net169
*1885 net17
*1886 net170
*1887 net171
*1888 net172
*1889 net173
*1890 net174
*1891 net175
*1892 net176
*1893 net177
*1894 net178
*1895 net179
*1896 net18
*1897 net180
*1898 net181
*1899 net182
*1900 net183
*1901 net184
*1902 net185
*1903 net186
*1904 net187
*1905 net188
*1906 net189
*1907 net19
*1908 net190
*1909 net191
*1910 net192
*1911 net193
*1912 net194
*1913 net195
*1914 net196
*1915 net197
*1916 net198
*1917 net199
*1918 net2
*1919 net20
*1920 net200
*1921 net201
*1922 net202
*1923 net203
*1924 net204
*1925 net205
*1926 net206
*1927 net207
*1928 net208
*1929 net209
*1930 net21
*1931 net210
*1932 net211
*1933 net212
*1934 net213
*1935 net214
*1936 net215
*1937 net216
*1938 net217
*1939 net218
*1940 net219
*1941 net22
*1942 net220
*1943 net221
*1944 net222
*1945 net223
*1946 net224
*1947 net225
*1948 net226
*1949 net227
*1950 net228
*1951 net229
*1952 net23
*1953 net230
*1954 net231
*1955 net232
*1956 net233
*1957 net234
*1958 net235
*1959 net236
*1960 net237
*1961 net238
*1962 net239
*1963 net24
*1964 net240
*1965 net241
*1966 net242
*1967 net243
*1968 net244
*1969 net245
*1970 net246
*1971 net247
*1972 net248
*1973 net249
*1974 net25
*1975 net250
*1976 net251
*1977 net252
*1978 net253
*1979 net254
*1980 net255
*1981 net256
*1982 net257
*1983 net258
*1984 net259
*1985 net26
*1986 net260
*1987 net261
*1988 net262
*1989 net263
*1990 net264
*1991 net265
*1992 net266
*1993 net267
*1994 net268
*1995 net269
*1996 net27
*1997 net270
*1998 net271
*1999 net272
*2000 net273
*2001 net274
*2002 net275
*2003 net276
*2004 net277
*2005 net278
*2006 net279
*2007 net28
*2008 net280
*2009 net281
*2010 net282
*2011 net283
*2012 net284
*2013 net285
*2014 net286
*2015 net287
*2016 net288
*2017 net289
*2018 net29
*2019 net290
*2020 net291
*2021 net292
*2022 net293
*2023 net294
*2024 net295
*2025 net296
*2026 net297
*2027 net298
*2028 net299
*2029 net3
*2030 net30
*2031 net300
*2032 net301
*2033 net302
*2034 net303
*2035 net304
*2036 net305
*2037 net306
*2038 net307
*2039 net308
*2040 net309
*2041 net31
*2042 net310
*2043 net311
*2044 net312
*2045 net313
*2046 net314
*2047 net315
*2048 net316
*2049 net317
*2050 net318
*2051 net319
*2052 net32
*2053 net320
*2054 net321
*2055 net322
*2056 net323
*2057 net324
*2058 net325
*2059 net326
*2060 net327
*2061 net328
*2062 net329
*2063 net33
*2064 net330
*2065 net331
*2066 net332
*2067 net333
*2068 net334
*2069 net335
*2070 net336
*2071 net337
*2072 net338
*2073 net339
*2074 net34
*2075 net340
*2076 net341
*2077 net342
*2078 net343
*2079 net344
*2080 net345
*2081 net346
*2082 net347
*2083 net348
*2084 net349
*2085 net35
*2086 net350
*2087 net351
*2088 net352
*2089 net353
*2090 net354
*2091 net355
*2092 net356
*2093 net357
*2094 net358
*2095 net359
*2096 net36
*2097 net360
*2098 net361
*2099 net362
*2100 net363
*2101 net364
*2102 net365
*2103 net366
*2104 net367
*2105 net368
*2106 net369
*2107 net37
*2108 net370
*2109 net371
*2110 net372
*2111 net373
*2112 net374
*2113 net375
*2114 net376
*2115 net377
*2116 net378
*2117 net379
*2118 net38
*2119 net380
*2120 net381
*2121 net382
*2122 net383
*2123 net384
*2124 net385
*2125 net386
*2126 net387
*2127 net388
*2128 net389
*2129 net39
*2130 net390
*2131 net391
*2132 net392
*2133 net393
*2134 net394
*2135 net395
*2136 net396
*2137 net397
*2138 net398
*2139 net399
*2140 net4
*2141 net40
*2142 net400
*2143 net401
*2144 net402
*2145 net403
*2146 net404
*2147 net405
*2148 net406
*2149 net407
*2150 net408
*2151 net409
*2152 net41
*2153 net410
*2154 net411
*2155 net412
*2156 net413
*2157 net414
*2158 net415
*2159 net416
*2160 net417
*2161 net418
*2162 net419
*2163 net42
*2164 net420
*2165 net421
*2166 net422
*2167 net423
*2168 net424
*2169 net425
*2170 net426
*2171 net427
*2172 net428
*2173 net429
*2174 net43
*2175 net430
*2176 net431
*2177 net432
*2178 net433
*2179 net434
*2180 net435
*2181 net436
*2182 net437
*2183 net438
*2184 net439
*2185 net44
*2186 net440
*2187 net441
*2188 net442
*2189 net443
*2190 net444
*2191 net445
*2192 net446
*2193 net447
*2194 net448
*2195 net449
*2196 net45
*2197 net450
*2198 net451
*2199 net452
*2200 net453
*2201 net454
*2202 net455
*2203 net456
*2204 net457
*2205 net458
*2206 net459
*2207 net46
*2208 net460
*2209 net461
*2210 net462
*2211 net463
*2212 net464
*2213 net465
*2214 net466
*2215 net467
*2216 net468
*2217 net469
*2218 net47
*2219 net470
*2220 net471
*2221 net472
*2222 net473
*2223 net474
*2224 net475
*2225 net476
*2226 net477
*2227 net478
*2228 net479
*2229 net48
*2230 net480
*2231 net481
*2232 net482
*2233 net483
*2234 net484
*2235 net485
*2236 net486
*2237 net487
*2238 net488
*2239 net489
*2240 net49
*2241 net490
*2242 net491
*2243 net492
*2244 net493
*2245 net494
*2246 net495
*2247 net496
*2248 net497
*2249 net498
*2250 net499
*2251 net5
*2252 net50
*2253 net500
*2254 net501
*2255 net502
*2256 net503
*2257 net504
*2258 net505
*2259 net506
*2260 net507
*2261 net508
*2262 net509
*2263 net51
*2264 net510
*2265 net511
*2266 net512
*2267 net513
*2268 net514
*2269 net515
*2270 net516
*2271 net517
*2272 net518
*2273 net519
*2274 net52
*2275 net520
*2276 net521
*2277 net522
*2278 net523
*2279 net524
*2280 net525
*2281 net526
*2282 net527
*2283 net528
*2284 net529
*2285 net53
*2286 net530
*2287 net531
*2288 net54
*2289 net55
*2290 net56
*2291 net57
*2292 net58
*2293 net59
*2294 net6
*2295 net60
*2296 net61
*2297 net62
*2298 net63
*2299 net64
*2300 net65
*2301 net66
*2302 net67
*2303 net68
*2304 net69
*2305 net7
*2306 net70
*2307 net71
*2308 net72
*2309 net73
*2310 net74
*2311 net75
*2312 net76
*2313 net77
*2314 net78
*2315 net79
*2316 net8
*2317 net80
*2318 net81
*2319 net82
*2320 net83
*2321 net84
*2322 net85
*2323 net86
*2324 net87
*2325 net88
*2326 net89
*2327 net9
*2328 net90
*2329 net91
*2330 net92